Circuit: * C:\Users\Zijian\SynologyDrive\Documents\2023 Game Plan\KiCad\Lightning Trigger\simulation\time delay\time delay.asc

Limiting rise time of source v1 to 2e-06
Limiting fall time of source v1 to 2e-06
Direct Newton iteration failed to find .op point.  (Use ".option noopiter" to skip.)
Starting Gmin stepping
Gmin = 10
Gmin = 1.07374
Gmin = 0.115292
Gmin = 0.0123794
Gmin = 0.00132923
Gmin = 0.000142725
Gmin = 1.5325e-05
Gmin = 1.6455e-06
Gmin = 1.76685e-07
Gmin = 1.89714e-08
Gmin = 2.03704e-09
Gmin = 2.18725e-10
Gmin = 2.34854e-11
Gmin = 2.52173e-12
Gmin = 2.70769e-13
Gmin = 0
Gmin stepping succeeded in finding the operating point.


Date: Thu Sep 21 21:38:54 2023
Total elapsed time: 0.134 seconds.

tnom = 27
temp = 27
method = modified trap
totiter = 3560
traniter = 3164
tranpoints = 1361
accept = 1307
rejected = 54
matrix size = 16
fillins = 0
solver = Normal
Avg thread counts: 2.3/4.0/4.0/2.3
Matrix Compiler1:      28 opcodes  0.2/[0.1]/0.1
Matrix Compiler2: 856 bytes object code size  0.1/0.3/[0.1]

