Questionable use of curly braces in "b§r7 vin 0 r={v(vcr)}"
    Error: undefined symbol in: "[v](vcr)"
Circuit: * C:\Users\Zijian\SynologyDrive\Documents\2023 Game Plan\KiCad\Lightning Trigger\simulation\v2\lightning trigger slow.asc

Warning: Multiple definitions of model "2scr375p" Type: BJT
Warning: Multiple definitions of model "bc857b" Type: BJT
Warning: Multiple definitions of model "bc847c" Type: BJT
Warning: Multiple definitions of model "bc847b" Type: BJT
WARNING: Specified period is not longer than the sum of Trise, Tfall, and Ton for v2.  Increasing period to 1.00005
Direct Newton iteration for .op point succeeded.

Date: Tue Oct 10 21:28:20 2023
Total elapsed time: 0.320 seconds.

tnom = 27
temp = 27
method = modified trap
totiter = 3998
traniter = 3987
tranpoints = 1626
accept = 1480
rejected = 146
matrix size = 91
fillins = 71
solver = Normal
Avg thread counts: 2.0/3.5/3.4/2.0
Matrix Compiler1: 7.70 KB object code size  2.3/1.6/[0.8]
Matrix Compiler2: 8.36 KB object code size  1.0/1.5/[0.7]

