Circuit: * \\nas\home\Documents\2023 Game Plan\KiCad\Lightning Trigger\simulation\v3\photodiode amp.asc

Early termination of direct N-R iteration.
Direct Newton iteration failed to find .op point.  (Use ".option noopiter" to skip.)
Starting Gmin stepping
Gmin = 10
Gmin = 1.07374
Gmin = 0.115292
Gmin = 0.0123794
Gmin = 0.00132923
Gmin = 0.000142725
Gmin = 1.5325e-05
Gmin = 1.6455e-06
Gmin = 1.76685e-07
Gmin = 1.89714e-08
Gmin = 2.03704e-09
Gmin = 2.18725e-10
Gmin = 2.34854e-11
Gmin = 2.52173e-12
Gmin = 2.70769e-13
Gmin = 0
Gmin stepping succeeded in finding the operating point.


Date: Mon Nov 20 21:53:20 2023
Total elapsed time: 0.192 seconds.

tnom = 27
temp = 27
method = modified trap
totiter = 4649
traniter = 4164
tranpoints = 1622
accept = 1469
rejected = 153
matrix size = 85
fillins = 176
solver = Normal
Avg thread counts: 2.0/3.5/3.5/2.0
Matrix Compiler1: 14.34 KB object code size  2.5/1.3/[1.2]
Matrix Compiler2: 9.67 KB object code size  0.8/0.9/[0.5]

