Circuit: * \\nas\home\Documents\2023 Game Plan\KiCad\Lightning Trigger\simulation\v3\photodiode no amp.asc

Early termination of direct N-R iteration.
Direct Newton iteration failed to find .op point.  (Use ".option noopiter" to skip.)
Starting Gmin stepping
Gmin = 10
Gmin = 1.07374
Gmin = 0.115292
Gmin = 0.0123794
Gmin = 0.00132923
Gmin = 0.000142725
Gmin = 1.5325e-05
Gmin = 1.6455e-06
Gmin = 1.76685e-07
Gmin = 1.89714e-08
Gmin = 2.03704e-09
Gmin = 2.18725e-10
Gmin = 2.34854e-11
Gmin = 2.52173e-12
Gmin = 2.70769e-13
Gmin = 0
Gmin stepping succeeded in finding the operating point.


Date: Wed Oct 18 21:21:39 2023
Total elapsed time: 0.132 seconds.

tnom = 27
temp = 27
method = modified trap
totiter = 2785
traniter = 2371
tranpoints = 1186
accept = 1151
rejected = 35
matrix size = 33
fillins = 89
solver = Normal
Avg thread counts: 2.7/4.4/4.4/2.7
Matrix Compiler1: 7.30 KB object code size  1.4/0.7/[0.6]
Matrix Compiler2: off  [0.3]/0.4/0.3

